tests/data/power_flow/pandapower/components/asymmetric/pandapower-asymmetric-sym_load/pgm_asym_output.json
{
  "line": [
    {
      "id": 3,
      "energized": 1,
      "loading": 0.0018768586798146355,
      "p_from": [
        3333.5862766534765,
        3333.5862766313267,
        3333.5862766413793
      ],
      "q_from": [
        -10878.54298871586,
        -10878.542988750432,
        -10878.54298866081
      ],
      "i_from": [
        1.876858679810253,
        1.8768586798146354,
        1.8768586798009859
      ],
      "s_from": [
        11377.85107220302,
        11377.851072229583,
        11377.85107214684
      ],
      "p_to": [
        -3333.333333322076,
        -3333.3333332904017,
        -3333.3333333271803
      ],
      "q_to": [
        -666.6666666500108,
        -666.6666666028304,
        -666.6666667187633
      ],
      "i_to": [
        0.5607438557249229,
        0.5607438557182731,
        0.5607438557279729
      ],
      "s_to": [
        3399.346342380885,
        3399.346342340573,
        3399.3463423993735
      ]
    }
  ],
  "node": [
    {
      "id": 1,
      "energized": 1,
      "u_pu": [
        1.0000000000000002,
        1.0,
        1.0000000000000002
      ],
      "u": [
        6062.177826491073,
        6062.177826491072,
        6062.177826491073
      ],
      "u_angle": [
        -1.1626208895534482e-16,
        -2.0943951023931957,
        2.0943951023931953
      ]
    },
    {
      "id": 2,
      "energized": 1,
      "u_pu": [
        1.000005110968756,
        1.0000051109687562,
        1.0000051109687558
      ],
      "u": [
        6062.208810092537,
        6062.2088100925375,
        6062.208810092535
      ],
      "u_angle": [
        -5.2875481542187396e-05,
        -2.094447977874738,
        2.094342226911653
      ]
    }
  ],
  "source": [
    {
      "id": 4,
      "energized": 1,
      "p": [
        3119.69461144937,
        6009.826894816029,
        14522.019684932417
      ],
      "q": [
        -7750.37166726991,
        -4320.183792544091,
        -9686.891137806018
      ],
      "i": [
        1.3781655504114354,
        1.2209286897673426,
        2.8795545557129247
      ],
      "s": [
        8354.684640938065,
        7401.4868308343775,
        17456.371777814235
      ],
      "pf": [
        0.37340662700334915,
        0.8119756249216395,
        0.8319036664531192
      ]
    }
  ],
  "sym_load": [
    {
      "id": 6,
      "energized": 1,
      "p": [
        3333.333333333333,
        3333.333333333333,
        3333.333333333333
      ],
      "q": [
        666.6666666666666,
        666.6666666666666,
        666.6666666666666
      ],
      "i": [
        0.5607438557272827,
        0.5607438557272826,
        0.5607438557272828
      ],
      "s": [
        3399.34634239519,
        3399.34634239519,
        3399.34634239519
      ],
      "pf": [
        0.9805806756909201,
        0.9805806756909201,
        0.9805806756909201
      ]
    },
    {
      "id": 7,
      "energized": 1,
      "p": [
        -0.0,
        -0.0,
        -0.0
      ],
      "q": [
        -0.0,
        -0.0,
        -0.0
      ],
      "i": [
        0.0,
        0.0,
        0.0
      ],
      "s": [
        0.0,
        0.0,
        0.0
      ],
      "pf": [
        0.0,
        0.0,
        0.0
      ]
    }
  ]
}